DEPTH = 128;
WIDTH = 10;
ADDRESS_RADIX = HEX;
DATA_RADIX = BIN;

CONTENT
  BEGIN
    [00..4F] : 0000000000;

          00 : 0000000000;
          01 : 0000000000;
          02 : 0000000000;
          03 : 0000000000;
          04 : 0000000000;
          05 : 0000000000;
          06 : 0000000000;
          07 : 0000000000;
          08 : 0000000000;
          09 : 0000000000;
          0A : 0000000000;
          0B : 0000000000;
          0C : 0000000000;
          0D : 0000000000;
          0E : 0000000000;
          0F : 0000000000;

          10 : 0010000100;
          11 : 0010000100;
          12 : 1111111111;
          13 : 0010000100;
          14 : 0010000100;
          15 : 0010000100;
          16 : 0010000100;
          17 : 1111111111;
          18 : 0010000100;
          19 : 0010000100;
          1A : 0000000000;
          1B : 0000000000;
          1C : 0000000000;
          1D : 0000000000;
          1E : 0000000000;
          1F : 0000000000;

          20 : 0000000000;
          21 : 0000000000;
          22 : 1111111111;
          23 : 0000000000;
          24 : 0000000000;
          25 : 0000000000;
          26 : 0000000000;
          27 : 1111111111;
          28 : 0000000000;
          29 : 0000000000;
          2A : 0000000000;
          2B : 0000000000;
          2C : 0000000000;
          2D : 0000000000;
          2E : 0000000000;
          2F : 0000000000;

          30 : 0010000100;
          31 : 0010000100;
          32 : 0010000100;
          33 : 0010000100;
          34 : 0010000100;
          35 : 0010000100;
          36 : 0010000100;
          37 : 0010000100;
          38 : 0010000100;
          39 : 0010000100;
          3A : 0000000000;
          3B : 0000000000;
          3C : 0000000000;
          3D : 0000000000;
          3E : 0000000000;
          3F : 0000000000;

          40 : 0000000000;
          41 : 0000000000;
          42 : 0000000011;
          43 : 0000000100;
          44 : 0000001000;
          45 : 0000010000;
          46 : 0000100000;
          47 : 0001000001;
          48 : 0010000010;
          49 : 0010000100;
          4A : 0000000000;
          4B : 0000000000;
          4C : 0000000000;
          4D : 0000000000;
          4E : 0000000000;
          4F : 0000000000;

          50 : 0000000000;
          51 : 0000000000;
          52 : 1100000000;
          53 : 0010000000;
          54 : 0001000000;
          55 : 0000100000;
          56 : 0000010000;
          57 : 1000001000;
          58 : 0100000100;
          59 : 0010000100;
          5A : 0000000000;
          5B : 0000000000;
          5C : 0000000000;
          5D : 0000000000;
          5E : 0000000000;
          5F : 0000000000;

          60 : 0010000100;
          61 : 0010000010;
          62 : 0001000001;
          63 : 0000100000;
          64 : 0000010000;
          65 : 0000001000;
          66 : 0000000100;
          67 : 0000000011;
          68 : 0000000000;
          69 : 0000000000;
          6A : 0000000000;
          6B : 0000000000;
          6C : 0000000000;
          6D : 0000000000;
          6E : 0000000000;
          6F : 0000000000;

          70 : 0010000100;
          71 : 0100000100;
          72 : 1000001000;
          73 : 0000010000;
          74 : 0000100000;
          75 : 0001000000;
          76 : 0010000000;
          77 : 1100000000;
          78 : 0000000000;
          79 : 0000000000;
          7A : 0000000000;
          7B : 0000000000;
          7C : 0000000000;
          7D : 0000000000;
          7E : 0000000000;
          7F : 0000000000;
END;
